OpenDSS_Files - UFLA/Transformers.txt
New Transformer.T26 Buses=[P60 T26] Conns=[Delta Wye] kVs=[13.8 0.22] kVAs=[30 30] XHL=3.26 sub=y
New Transformer.T27 Buses=[P64 T27] Conns=[Delta Wye] kVs=[13.8 0.22] kVAs=[75 75] XHL=3.62 sub=y
New Transformer.T28 Buses=[P66 T28] Conns=[Delta Wye] kVs=[13.8 0.22] kVAs=[75 75] XHL=3.61 sub=y
New Transformer.T31 Buses=[P75 T31] Conns=[Delta Wye] kVs=[13.8 0.22] kVAs=[112.5 112.5] XHL=3.67 sub=y
New Transformer.T53 Buses=[P42 T53] Conns=[Delta Wye] kVs=[13.8 0.22] kVAs=[75 75] XHL=3.51 sub=y
New Transformer.T54 Buses=[P44 T54] Conns=[Delta Wye] kVs=[13.8 0.22] kVAs=[75 75] XHL=3.48 sub=y
New Transformer.T55 Buses=[P189 T55] Conns=[Delta Wye] kVs=[13.8 0.22] kVAs=[30 30] XHL=3.28 sub=y
New Transformer.T56 Buses=[P246 T56] Conns=[Delta Wye] kVs=[13.8 0.22] kVAs=[30 30] XHL=3.30 sub=y
New Transformer.T57 Buses=[P38 T57] Conns=[Delta Wye] kVs=[13.8 0.22] kVAs=[112.5 112.5] XHL=3.54 sub=y
New Transformer.T58 Buses=[P32 T58] Conns=[Delta Wye] kVs=[13.8 0.22] kVAs=[30 30] XHL=3.48 sub=y
New Transformer.T59 Buses=[P139 T59] Conns=[Delta Wye] kVs=[13.8 0.22] kVAs=[75 75] XHL=3.31 sub=y
New Transformer.T60 Buses=[P141 T60] Conns=[Delta Wye] kVs=[13.8 0.22] kVAs=[300 300] XHL=4.28 sub=y
New Transformer.T61 Buses=[P145 T61] Conns=[Delta Wye] kVs=[13.8 0.22] kVAs=[300 300] XHL=4.44 sub=y
New Transformer.T62 Buses=[P152 T62] Conns=[Delta Wye] kVs=[13.8 0.22] kVAs=[112.5 112.5] XHL=3.54 sub=y
New Transformer.T63 Buses=[P153 T63] Conns=[Delta Wye] kVs=[13.8 0.22] kVAs=[150 150] XHL=3.54 sub=y
New Transformer.T64 Buses=[P172 T64] Conns=[Delta Wye] kVs=[13.8 0.22] kVAs=[112.5 112.5] XHL=3.29 sub=y
New Transformer.T65 Buses=[P173 T65] Conns=[Delta Wye] kVs=[13.8 0.22] kVAs=[150 150] XHL=3.52 sub=y
New Transformer.T68 Buses=[P199 T68] Conns=[Delta Wye] kVs=[13.8 0.22] kVAs=[75 75] XHL=3.55 sub=y
New Transformer.T69 Buses=[P48 T69] Conns=[Delta Wye] kVs=[13.8 0.22] kVAs=[75 75] XHL=3.52 sub=y
New Transformer.T70 Buses=[P50 T70] Conns=[Delta Wye] kVs=[13.8 0.22] kVAs=[150 150] XHL=3.74 sub=y
New Transformer.T71 Buses=[P52 T71] Conns=[Delta Wye] kVs=[13.8 0.22] kVAs=[112.5 112.5] XHL=3.52 sub=y
New Transformer.T72 Buses=[P55 T72] Conns=[Delta Wye] kVs=[13.8 0.22] kVAs=[150 150] XHL=3.74 sub=y
New Transformer.T73 Buses=[P77 T73] Conns=[Delta Wye] kVs=[13.8 0.22] kVAs=[75 75] XHL=3.57 sub=y
New Transformer.T74 Buses=[P78 T74] Conns=[Delta Wye] kVs=[13.8 0.22] kVAs=[75 75] XHL=3.64 sub=y
New Transformer.T75 Buses=[P81 T75] Conns=[Delta Wye] kVs=[13.8 0.22] kVAs=[112.5 112.5] XHL=3.50 sub=y
New Transformer.T76 Buses=[P82 T76] Conns=[Delta Wye] kVs=[13.8 0.22] kVAs=[112.5 112.5] XHL=3.33 sub=y
New Transformer.T77 Buses=[P227 T77] Conns=[Delta Wye] kVs=[13.8 0.22] kVAs=[150 150] XHL=3.44 sub=y
New Transformer.T78 Buses=[P233 T78] Conns=[Delta Wye] kVs=[13.8 0.22] kVAs=[75 75] XHL=3.57 sub=y
New Transformer.T79 Buses=[P262 T79] Conns=[Delta Wye] kVs=[13.8 0.22] kVAs=[75 75] XHL=3.31 sub=y
New Transformer.T80 Buses=[P242 T80] Conns=[Delta Wye] kVs=[13.8 0.22] kVAs=[75 75] XHL=3.57 sub=y
New Transformer.T81 Buses=[P88 T81] Conns=[Delta Wye] kVs=[13.8 0.22] kVAs=[75 75] XHL=3.63 sub=y
New Transformer.T82 Buses=[P93 T82] Conns=[Delta Wye] kVs=[13.8 0.22] kVAs=[150 150] XHL=3.72 sub=y
New Transformer.T83 Buses=[P108 T83] Conns=[Delta Wye] kVs=[13.8 0.22] kVAs=[75 75] XHL=3.54 sub=y
New Transformer.T84 Buses=[P114 T84] Conns=[Delta Wye] kVs=[13.8 0.22] kVAs=[75 75] XHL=3.52 sub=y
New Transformer.T85 Buses=[P220 T85] Conns=[Delta Wye] kVs=[13.8 0.22] kVAs=[75 75] XHL=3.30 sub=y
New Transformer.T86 Buses=[P254 T86] Conns=[Delta Wye] kVs=[13.8 0.22] kVAs=[30 30] XHL=3.27 sub=y
New Transformer.T87 Buses=[P162 T87] Conns=[Delta Wye] kVs=[13.8 0.22] kVAs=[150 150] XHL=3.52 sub=y
New Transformer.T88 Buses=[P167 T88] Conns=[Delta Wye] kVs=[13.8 0.22] kVAs=[150 150] XHL=3.40 sub=y
New Transformer.T89 Buses=[P159 T89] Conns=[Delta Wye] kVs=[13.8 0.22] kVAs=[45 45] XHL=3.34 sub=y
New Transformer.T90 Buses=[P260 T90] Conns=[Delta Wye] kVs=[13.8 0.22] kVAs=[45 45] XHL=3.31 sub=y
New Transformer.T91 Buses=[P270 T91] Conns=[Delta Wye] kVs=[13.8 0.22] kVAs=[500 500] XHL=5.50 sub=y
New Transformer.T93 Buses=[P130 T93] Conns=[Delta Wye] kVs=[13.8 0.22] kVAs=[300 300] XHL=4.39 sub=y
New Transformer.T94 Buses=[P133 T94] Conns=[Delta Wye] kVs=[13.8 0.22] kVAs=[45 45] XHL=3.51 sub=y
New Transformer.T95 Buses=[P136 T95] Conns=[Delta Wye] kVs=[13.8 0.22] kVAs=[112.5 112.5] XHL=3.30 sub=y
New Transformer.T96 Buses=[P146 T96] Conns=[Delta Wye] kVs=[13.8 0.22] kVAs=[75 75] XHL=3.57 sub=y
New Transformer.T97 Buses=[P177 T97] Conns=[Delta Wye] kVs=[13.8 0.22] kVAs=[75 75] XHL=3.36 sub=y
New Transformer.T98 Buses=[P180 T98] Conns=[Delta Wye] kVs=[13.8 0.22] kVAs=[150 150] XHL=3.55 sub=y
New Transformer.T99 Buses=[P183 T99] Conns=[Delta Wye] kVs=[13.8 0.22] kVAs=[75 75] XHL=3.57 sub=y
New Transformer.T100 Buses=[P195 T100] Conns=[Delta Wye] kVs=[13.8 0.22] kVAs=[75 75] XHL=3.58 sub=y
New Transformer.T101 Buses=[P204 T101] Conns=[Delta Wye] kVs=[13.8 0.22] kVAs=[75 75] XHL=3.61 sub=y
New Transformer.T102 Buses=[P207 T102] Conns=[Delta Wye] kVs=[13.8 0.22] kVAs=[45 45] XHL=3.46 sub=y
New Transformer.TFV Buses=[P90 QDGFV0] Conns=[Delta Wye] kVs=[13.8 0.38] kVAs=[1500 1500] XHL=5.98 sub=y

!transformadores do alexandre UFLA

New Transformer.T103 Buses=[P274 T103] Conns=[Delta Wye] kVs=[13.8 0.22] kVAs=[30 30] XHL=3.31 sub=y
New Transformer.T104 Buses=[P362 T104] Conns=[Delta Wye] kVs=[13.8 0.22] kVAs=[45 45] XHL=3.57 sub=y
New Transformer.T105 Buses=[P285 T105] Conns=[Delta Wye] kVs=[13.8 0.22] kVAs=[30 30] XHL=3.63 sub=y
New Transformer.T106 Buses=[P291 T106] Conns=[Delta Wye] kVs=[13.8 0.22] kVAs=[30 30] XHL=3.72 sub=y
New Transformer.T107 Buses=[P296 T107] Conns=[Delta Wye] kVs=[13.8 0.22] kVAs=[45 45] XHL=3.54 sub=y
New Transformer.T108 Buses=[P372 T108] Conns=[Delta Wye] kVs=[13.8 0.22] kVAs=[45 45] XHL=3.52 sub=y
New Transformer.T109 Buses=[P378 T109] Conns=[Delta Wye] kVs=[13.8 0.22] kVAs=[30 30] XHL=3.30 sub=y
New Transformer.T110 Buses=[P402 T110] Conns=[Delta Wye] kVs=[13.8 0.22] kVAs=[75 75] XHL=3.27 sub=y
New Transformer.T111 Buses=[P407 T111] Conns=[Delta Wye] kVs=[13.8 0.22] kVAs=[150 150] XHL=3.52 sub=y
New Transformer.T112 Buses=[P409 T112] Conns=[Delta Wye] kVs=[13.8 0.22] kVAs=[112.5 112.5] XHL=3.40 sub=y
New Transformer.T113 Buses=[P412 T113] Conns=[Delta Wye] kVs=[13.8 0.22] kVAs=[75 75] XHL=3.34 sub=y
New Transformer.T114 Buses=[P413 T114] Conns=[Delta Wye] kVs=[13.8 0.22] kVAs=[75 75] XHL=3.31 sub=y
New Transformer.T115 Buses=[P415 T115] Conns=[Delta Wye] kVs=[13.8 0.22] kVAs=[75 75] XHL=5.50 sub=y
New Transformer.T116 Buses=[P418 T116] Conns=[Delta Wye] kVs=[13.8 0.22] kVAs=[75 75] XHL=4.39 sub=y
New Transformer.T117 Buses=[P421 T117] Conns=[Delta Wye] kVs=[13.8 0.22] kVAs=[75 75] XHL=3.51 sub=y
New Transformer.T118 Buses=[P422 T118] Conns=[Delta Wye] kVs=[13.8 0.22] kVAs=[150 150] XHL=3.30 sub=y
New Transformer.T119 Buses=[P387 T119] Conns=[Delta Wye] kVs=[13.8 0.22] kVAs=[30 30] XHL=3.57 sub=y
New Transformer.T120 Buses=[P391 T120] Conns=[Delta Wye] kVs=[13.8 0.22] kVAs=[30 30] XHL=3.36 sub=y
New Transformer.T121 Buses=[P393 T121] Conns=[Delta Wye] kVs=[13.8 0.22] kVAs=[30 30] XHL=3.55 sub=y
New Transformer.T122 Buses=[P424 T122] Conns=[Delta Wye] kVs=[13.8 0.22] kVAs=[30 30] XHL=3.57 sub=y
New Transformer.T123 Buses=[P305 T123] Conns=[Delta Wye] kVs=[13.8 0.22] kVAs=[75 75] XHL=3.58 sub=y
New Transformer.T124 Buses=[P311 T124] Conns=[Delta Wye] kVs=[13.8 0.22] kVAs=[75 75] XHL=3.61 sub=y
New Transformer.T125 Buses=[P307 T125] Conns=[Delta Wye] kVs=[13.8 0.22] kVAs=[75 75] XHL=3.46 sub=y
New Transformer.T126 Buses=[P316 T126] Conns=[Delta Wye] kVs=[13.8 0.22] kVAs=[45 45] XHL=3.36 sub=y
New Transformer.T127 Buses=[P319 T127] Conns=[Delta Wye] kVs=[13.8 0.22] kVAs=[75 75] XHL=3.55 sub=y
New Transformer.T128 Buses=[P338 T128] Conns=[Delta Wye] kVs=[13.8 0.22] kVAs=[75 75] XHL=3.57 sub=y
New Transformer.T129 Buses=[P345 T129] Conns=[Delta Wye] kVs=[13.8 0.22] kVAs=[45 45] XHL=3.58 sub=y
New Transformer.T130 Buses=[P329 T130] Conns=[Delta Wye] kVs=[13.8 0.22] kVAs=[45 45] XHL=3.61 sub=y
New Transformer.T131 Buses=[P349 T131] Conns=[Delta Wye] kVs=[13.8 0.22] kVAs=[75 75] XHL=3.46 sub=y
New Transformer.T132 Buses=[P290 T132] Conns=[Delta Wye] kVs=[13.8 0.22] kVAs=[45 45] XHL=3.46 sub=y


!Transformadores do alexandre A
New Transformer.T133 Buses=[P459 T133] Conns=[Delta Wye] kVs=[13.8 0.22] kVAs=[30 30] XHL=3.5 sub=y
New Transformer.T134 Buses=[P444 T134] Conns=[Delta Wye] kVs=[13.8 0.22] kVAs=[225 225] XHL=4.33 sub=y
New Transformer.T135 Buses=[P446 T135] Conns=[Delta Wye] kVs=[13.8 0.22] kVAs=[45 45] XHL=3.76 sub=y
New Transformer.T136 Buses=[P438 T136] Conns=[Delta Wye] kVs=[13.8 0.22] kVAs=[75 75] XHL=3.35 sub=y
New Transformer.T137 Buses=[P450 T137] Conns=[Delta Wye] kVs=[13.8 0.22] kVAs=[225 225] XHL=4.55 sub=y
New Transformer.T138 Buses=[P442 T138] Conns=[Delta Wye] kVs=[13.8 0.22] kVAs=[150 150] XHL=3.69 sub=y
New Transformer.T139 Buses=[P464 T139] Conns=[Delta Wye] kVs=[13.8 0.22] kVAs=[150 150]	XHL=3.36 sub=y
New Transformer.T140 Buses=[P466 T140] Conns=[Delta Wye] kVs=[13.8 0.22] kVAs=[225 225]	XHL=4.51 sub=y
New Transformer.T141 Buses=[P282 T141] Conns=[Delta Wye] kVs=[13.8 0.22] kVAs=[150 150]	XHL=3.57 sub=y
New Transformer.T142 Buses=[P346 T142] Conns=[Delta Wye] kVs=[13.8 0.22] kVAs=[150 150]	XHL=3.58 sub=y
New Transformer.T143 Buses=[P298 T143] Conns=[Delta Wye] kVs=[13.8 0.22] kVAs=[150 150]	XHL=3.61 sub=y
New Transformer.T144 Buses=[P95 T144] Conns=[Delta Wye]	kVs=[13.8 0.22]	kVAs=[75 75] XHL=3.46 sub=y
New Transformer.T145 Buses=[P96 T145] Conns=[Delta Wye]	kVs=[13.8 0.22]	kVAs=[150 150]	XHL=3.46 sub=y
New Transformer.T146 Buses=[P431 T146] Conns=[Delta Wye] kVs=[13.8 0.22] kVAs=[75 75]	XHL=3.49 sub=y
